##==================================================================================================================================================================
	Following is the BENCHMARK RUNNING STATUS of benchmarks from directory "/home/rakesh/workspace/ispass2009-benchmarks-master"
===================================================================================================================================================================
     1. Running Successfully
          AES
          BFS
          CP
          LIB
          LPS
          MUM
          NN
          NQU
          RAY
          WP
          STO //tarted working after giving correct path of STO executable in README.GPGPU-Sim file. from  "../../../bin/release/STO" to "../bin/release/STO" 

     2.Not Running successfully
          DG

====================================================================================================================================================================
     2. FULL NAMES OF BENCHMARKS - 
====================================================================================================================================================================

     AES - AES encryption.
     BFS - Breadth First Search
     CP  - Coulombic Potential
     LIB 
     LPS - 3D Laplace Solver
     MUM - MUMmer GPU
           MUMmer is a system for rapidly aligning entire genomes, whether in complete or draft form. For example, MUMmer 3.0 can find all 20-basepair or longer exact 
           matches between a pair of 5-megabase genomes in 13.7 seconds, using 78 MB of memory, on a 2.4 GHz Linux desktop computer. I think it is like string matching.
           MUMmerGPU is a high-throughput DNA sequence alignment program that runs on nVidia G80-class GPUs. It aligns sequences in parallel on the video card to accelerate 
           the widely used serial CPU program MUMmer.

     RAY - Ray Tracing
           In computer graphics, ray tracing is a technique for generating an image by tracing the path of light through pixels in an image plane and simulating the effects
           of its encounters with virtual objects. It works by tracing a path from an imaginary eye through each pixel in a virtual screen, and calculating the color of the
           object visible through it.

     WP  - Weather Prediction

====================================================================================================================================================================
     3. APPROXIMATE TIME TAKEN BY EACH BENCHMARK JUST FOR AN IDEA
====================================================================================================================================================================
     AES - 2  MIN
     BFS - 11 MIN
     CP  - 7  MIN
     LIB - 43 MIN
     LPS - 6  MIN
     MUM - 39 MIN
     NN  - 45 MIN
     NQU - 1  MIN
     RAY - 4  MIN
     ST0 - 9  MIN
     WP  - 31 MIN

     RUNNING TIME ORERING:     NQU < AES < RAY < LPS < CP < STO < BFS < WP < MUM < LIB < NN

===============================================================================================================================================================================================================
###############################################################################################################################################################################################################
			ALL THESE VALUES ARE DEPENDENT ON SIZE OF SHARED MEMORY, SIZE OF REGISTER FILE.(AS THESE ARE BENCHMARKS SIZE OF TB REMAINS SAME.)
################################################################################################################################################################################################################
===============================================================================================================================================================================================================

          CTAs by kernels   Optimal  GridDim     BlockDim              Kernel_info                      Max TBs possible/Resource       Barrier/  kernel    %Branch  UNUSED    Loop    Unused
                              CTA                               lem   smem/TB  cmem/TB  regs/T      1536-Thrd 48k-Smem 32K-Regs MaxCTA  warp_div  size(KB)   Instr   RF(kb)/  Unroll    Regs
     			 																      TB regreq
     __________________________________________________________________________________________________________________________________________________________________________________________
     
     AES  Kernel 1 = 6 CTAs    4     (257,1,1)    (256,1,1)      0      6144     9332   14(16-nvvp)    6         8        9       8 	   yes/no     3.7       0 %      8/4      NO       

     __________________________________________________________________________________________________________________________________________________________________________________________
     
     BFS  Kernel 1 = 6 CTAs    5     (256,1,1)    (256,1,1)      0      0        84     15(18-nvvp)    6       infinity   8/(7nv) 8 	   no/yes     0.5       8 % 	   2/5      NO
          Kernel 2 = 6 CTAs    7     (256,1,1)    (256,1,1)										
          Kernel 3 = 6 CTAs    5     (256,1,1)    (256,1,1)
          Kernel 4 = 6 CTAs    6     (256,1,1)    (256,1,1)
          Kernel 5 = 6 CTAs    5     (256,1,1)    (256,1,1)
          Kernel 6 = 6 CTAs    5     (256,1,1)    (256,1,1)
          Kernel 7 = 6 CTAs    5     (256,1,1)    (256,1,1)
          Kernel 8 = 6 CTAs    5     (256,1,1)    (256,1,1)
     __________________________________________________________________________________________________________________________________________________________________________________________
     
     CP   Kernel 1 = 8 CTAs    5     (8,32,1)     (16,8,1)       0      0        64048    15           12      infinity      17   8	   no/no      0.6      4.5 %	   16/2     NO
     __________________________________________________________________________________________________________________________________________________________________________________________

     lib  kernel 1 = 5 CTAs    3     (64,1,1)     (64,1,1)       0      0        516      24           24      infinity      21   8	   no/no      1.7      7.9 %     14/2.25  Yes
          Kernel 2 = 5 CTAs    3     (64,1,1)     (64,1,1)												          3.3
     __________________________________________________________________________________________________________________________________________________________________________________________

     lps  Kernel 1 = 7 CTAs    5     (4,25,1)     (32,4,1)       0      2448     64       16           12      20            16   8	   yes        1.8      9 %       12/2.5   NO
     __________________________________________________________________________________________________________________________________________________________________________________________

     mum  Kernel 1 =5/4CTAs    3     (196,1,1)    (256,1,1)      0      0        72       22           8       infinity      5    8	   no         2.1      12.5 %    4/7      NO

     __________________________________________________________________________________________________________________________________________________________________________________________
     
     nn   Kernel 1 = 7 CTAs    3     (6,28,1)     (13,13,1)      0      0        284      22           9       infinity      8    8	   no/yes     0.8      3 %       2/3.75   NO
          Kernel 2 = 8 CTAs          (50,28,1)    (5,5,1)										    	               1
          Kernel 3 = 8 CTAs          (100,28,1)   (1,1,1)                        								               0.8
          Kernel 4 = 8 CTAs          (10,28,1)    (1,1,1)											               0.8
     __________________________________________________________________________________________________________________________________________________________________________________________

     nqu  Kernel 1 =4/3CTAs    3     (256,1,1)    (96,1,1)       0      15744    76       16           16          3         21   8	  yes/yes     1.4     10.3 %     27.5/1.5 NO							   			
     __________________________________________________________________________________________________________________________________________________________________________________________
     
     ray  Kernel 1 = 5 CTAs    4     (16,32,1)    (16,8,1)       0      0        324      43           12      infinity      5    8	  yes/yes     5.7     6.25 %     2/6      NO     4608

     __________________________________________________________________________________________________________________________________________________________________________________________
     
     sto  Kernel 1 =4/3CTAs    3     (384,1,1)    (128,1,1)      0      16256    84       33           12          3         7    8	  no/no       20      0.4 %      14/6     Yes    14336

     __________________________________________________________________________________________________________________________________________________________________________________________
     
     wp   Kernel 1 = 5 CTAs    3     (9,8,1)      (8,8,1)        0      0        416      63           24       infinity     8    8	  no/yes      32      5.8 %      0/4      Yes    12288
																	

==========================================================================================================================================================================================
           					Status of benchmarks from directory "/home/rakesh/workspace"
==========================================================================================================================================================================================
      
          1]   from cuda 4.2 -> vecadd, transpose, FDTD3D, 
               Many of the rodinia benchmarks from "/home/rakesh/ispass2009-benchmarks_old/rodinia_1.0" are working successfully on simulator. 
               backprop  was taken from "/home/rakesh/ispass2009-benchmarks_old/rodinia_1.0/cuda/backprop" and run like this "./backprop 65536" 

====================================================================================================================================================================
 					Benchmarks limited by register space, shared memory and number of threads on SM
====================================================================================================================================================================
     1] Benchmarks limited by number of registers:
        ispass2009-benchmarks_old/rodinia_1.0/bin/linux/cuda ==> backprop, hotspot, 
        /home/rakesh/workspace/ispass2009-benchmarks-master  ==> LIB, MUM
     

     2] Benchmark division as in cache conscious wavefront scheduling.
               Cache sensitive benchmarks    ==>  Rodinia  - BFS, KMEANS,
     		     		                    Ispass12 - memcached(memc)

               Moderately cache sensitive    ==>  Rodinia  - WeatherPrediction(wp), streamcluster(stmcl), CFD solver(CFD)
                                                  Ispass09 - single source shortest path(SSSP).

               Cache Insensitive             ==>  Rodinia  - Needleman-wunsch(NDL), speckle Red. Anisotropic Diff./SRAD, LU Decomposition (LUD)
     			                              Ispass09 - Backpropagation(BACKP) 

     3] as per "Improving GPGPU resource utilization through alternative thread block scheduling"

            i)   more TBs more performance             - seperable convolution(sdk), matrix-mul/MMUL(sdk), 
            ii)  TBs increase performance saturates    - VADD(sdk), Structured Grid/SRAD(rodinia), columbic potential/CP(parboil)
            iii) performance decreases                 - MUMmerGPU/MUM(ispass09), Kmeans/KMN(rodinia), EstimatePinlineP/EIP(sdk)
            iV)  first increase then decrese           - Black-schole option pricing/BLK(sdk), 3D laplase solver/LPS(ispass09), seven point stencil/STN(parboil)

     _____________________________________________________________________________________________________________________________________________________________________________________________________

     Mem intensive benchmarks from cuda sdk - 
          WP (weather predicction), FWT(fast walsh transform)
          BFS  
     _____________________________________________________________________________________________________________________________________________________________________________________________________
     
     AES benchmark 
          Instruction cache blocks containing barrier - 2 3 7 9 12 14 16 18 21 23 25 28



